OPT_V10/Two_days_MYC3_SOS/powerflow_results_t20.txt
Pandapower Network Debug Info
==================================================

BUS:
       vm_pu  va_degree      p_mw    q_mvar
0   0.992139   0.128153  0.000910  0.001185
1   0.986970   0.195390  0.001710  0.002122
2   0.982152   0.257094  0.002693  0.003254
3   0.988098   0.217944  0.002603  0.004330
4   0.999880   0.000965  0.010285  0.011937
5   0.999866   0.001013  0.011192  0.009280
6   0.999856   0.001066  0.012002  0.011247
7   0.999925   0.000683  0.000000  0.000000
8   0.999925   0.000690  0.000000  0.000000
9   1.000000   0.000000 -0.041572 -0.048477
10  1.000000   0.000007  0.000000  0.000000
--------------------------------------------------

LINE:
   p_from_mw  q_from_mvar   p_to_mw  q_to_mvar         pl_mw       ql_mvar  i_from_ka   i_to_ka      i_ka  vm_from_pu  va_from_degree  vm_to_pu  va_to_degree  loading_percent
0   0.041562     0.044477 -0.041558  -0.044474  3.624543e-06  2.826116e-06   0.002343  0.002343  0.002343    1.000000        0.000007  0.999925      0.000683         1.018704
1   0.033481     0.032465 -0.033480  -0.032464  1.682126e-06  1.311581e-06   0.001795  0.001795  0.001795    0.999925        0.000683  0.999880      0.000965         0.780514
2   0.008067     0.011009 -0.007980  -0.010941  8.713662e-05  6.794186e-05   0.019701  0.019701  0.019701    0.999925        0.000690  0.992139      0.128153         8.565617
3  -0.023194    -0.020527  0.023195   0.020527  3.318474e-07  2.587469e-07   0.001192  0.001192  0.001192    0.999866        0.001013  0.999880      0.000965         0.518398
4  -0.012002    -0.011247  0.012002   0.011247  1.323490e-07  1.031947e-07   0.000633  0.000633  0.000633    0.999856        0.001066  0.999866      0.001013         0.275294
5  -0.004421    -0.005389  0.004450   0.005412  2.950746e-05  2.300746e-05   0.010193  0.010193  0.010193    0.986970        0.195390  0.992139      0.128153         4.431944
6  -0.002603    -0.004330  0.002620   0.004344  1.745664e-05  1.361123e-05   0.007380  0.007380  0.007380    0.988098        0.217944  0.992139      0.128153         3.208826
7  -0.002693    -0.003254  0.002710   0.003267  1.673348e-05  1.304737e-05   0.006208  0.006208  0.006208    0.982152        0.257094  0.986970      0.195390         2.699093
--------------------------------------------------

TRAFO:
    p_hv_mw  q_hv_mvar   p_lv_mw  q_lv_mvar    pl_mw  ql_mvar   i_hv_ka   i_lv_ka  vm_hv_pu  va_hv_degree  vm_lv_pu  va_lv_degree  loading_percent
0  0.008077   0.012009 -0.008067  -0.011009  0.00001    0.001  0.000557  0.019701  0.999925      0.000683  0.999925      0.000690         0.144734
1  0.041572   0.048477 -0.041562  -0.044477  0.00001    0.004  0.000527  0.002343  1.000000      0.000000  1.000000      0.000007         0.159652
--------------------------------------------------
